data_MFI

_audit_creation_method RASPA-1.0
_audit_creation_date 2022-4-23
_audit_author_name 'Pablo_Romero'

_cell_length_a    20.090
_cell_length_b    19.738
_cell_length_c    13.142
_cell_angle_alpha 90.000
_cell_angle_beta  90.000
_cell_angle_gamma 90.000
_cell_volume      5211.282

_symmetry_cell_setting          orthorhombic
_symmetry_space_group_name_Hall 'P 1'
_symmetry_space_group_name_H-M  'P 1'
_symmetry_Int_Tables_number     1
_symmetry_equiv_pos_as_xyz 'x,y,z'

loop_
_atom_site_label
_atom_site_type_symbol
_atom_site_fract_x
_atom_site_fract_y
_atom_site_fract_z
_atom_site_charge
O1         O     0.501     0.070     0.702     0.000
O2         O     0.388     0.074     0.801     0.000
O3         O     0.400     0.137     0.625     0.000
O4         O     0.397     0.003     0.633     0.000
O5         O     0.329     0.038     0.972     0.000
O6         O     0.330     0.956     0.816     0.000
O7         O     0.257     0.066     0.811     0.000
O8         O     0.291     0.130     0.106     0.000
O9         O     0.203     0.045     0.028     0.000
O10         O     0.294     0.001     0.156     0.000
O11         O     0.107     0.127     0.088     0.000
O12         O     0.085     0.037     0.944     0.000
O13         O     0.130     0.078     0.767     0.000
O14         O     0.073     0.959     0.783     0.000
O15         O     0.220     0.131     0.646     0.000
O16         O     0.491     0.855     0.717     0.000
O17         O     0.368     0.831     0.774     0.000
O18         O     0.426     0.750     0.643     0.000
O19         O     0.322     0.861     0.956     0.000
O20         O     0.241     0.858     0.799     0.000
O21         O     0.294     0.750     0.058     0.000
O22         O     0.198     0.831     0.000     0.000
O23         O     0.095     0.750     0.021     0.000
O24         O     0.081     0.867     0.927     0.000
O25         O     0.118     0.837     0.741     0.000
O26         O     0.212     0.750     0.691     0.000
Si1        Si     0.421     0.071     0.690     0.000
Si2        Si     0.326     0.034     0.850     0.000
Si3        Si     0.279     0.054     0.066     0.000
Si4        Si     0.125     0.051     0.048     0.000
Si5        Si     0.072     0.036     0.823     0.000
Si6        Si     0.203     0.069     0.720     0.000
Si7        Si     0.419     0.827     0.680     0.000
Si8        Si     0.315     0.876     0.836     0.000
Si9        Si     0.273     0.828     0.040     0.000
Si10        Si     0.118     0.828     0.018     0.000
Si11        Si     0.066     0.879     0.809     0.000
Si12        Si     0.195     0.829     0.709     0.000
O1         O     0.999     0.930     0.202     0.000
O2         O     0.113     0.926     0.301     0.000
O3         O     0.101     0.863     0.125     0.000
O4         O     0.103     0.997     0.133     0.000
O5         O     0.171     0.962     0.472     0.000
O6         O     0.170     0.044     0.316     0.000
O7         O     0.243     0.934     0.311     0.000
O8         O     0.209     0.870     0.606     0.000
O9         O     0.297     0.955     0.527     0.000
O10         O     0.206     0.999     0.656     0.000
O11         O     0.393     0.874     0.588     0.000
O12         O     0.415     0.963     0.444     0.000
O13         O     0.370     0.922     0.267     0.000
O14         O     0.427     0.041     0.283     0.000
O15         O     0.280     0.869     0.146     0.000
O16         O     0.009     0.145     0.217     0.000
O17         O     0.132     0.169     0.274     0.000
O18         O     0.074     0.250     0.143     0.000
O19         O     0.178     0.139     0.456     0.000
O20         O     0.259     0.142     0.299     0.000
O21         O     0.206     0.250     0.558     0.000
O22         O     0.302     0.169     0.500     0.000
O23         O     0.405     0.250     0.520     0.000
O24         O     0.419     0.133     0.427     0.000
O25         O     0.382     0.163     0.241     0.000
O26         O     0.288     0.250     0.191     0.000
Si1        Si     0.079     0.929     0.190     0.000
Si2        Si     0.174     0.966     0.350     0.000
Si3        Si     0.221     0.946     0.566     0.000
Si4        Si     0.375     0.949     0.548     0.000
Al1        Al     0.428     0.964     0.323     0.000
Si6        Si     0.297     0.931     0.220     0.000
Si7        Si     0.081     0.173     0.180     0.000
Si8        Si     0.185     0.123     0.336     0.000
Si9        Si     0.227     0.172     0.540     0.000
Al2        Al     0.382     0.172     0.518     0.000
Al3        Al     0.434     0.121     0.309     0.000
Si12        Si     0.305     0.171     0.209     0.000
O1         O     0.001     0.430     0.798     0.000
O2         O     0.887     0.426     0.699     0.000
O3         O     0.899     0.363     0.875     0.000
O4         O     0.897     0.497     0.867     0.000
O5         O     0.829     0.462     0.528     0.000
O6         O     0.830     0.544     0.684     0.000
O7         O     0.757     0.434     0.689     0.000
O8         O     0.791     0.370     0.394     0.000
O9         O     0.703     0.455     0.472     0.000
O10         O     0.794     0.499     0.344     0.000
O11         O     0.608     0.373     0.412     0.000
O12         O     0.585     0.463     0.556     0.000
O13         O     0.630     0.422     0.733     0.000
O14         O     0.573     0.541     0.717     0.000
O15         O     0.720     0.369     0.854     0.000
O16         O     0.991     0.645     0.783     0.000
O17         O     0.868     0.669     0.726     0.000
O18         O     0.926     0.750     0.857     0.000
O19         O     0.822     0.639     0.544     0.000
O20         O     0.741     0.642     0.701     0.000
O21         O     0.794     0.750     0.442     0.000
O22         O     0.698     0.669     0.500     0.000
O23         O     0.595     0.750     0.479     0.000
O24         O     0.581     0.633     0.573     0.000
O25         O     0.618     0.663     0.759     0.000
O26         O     0.712     0.750     0.809     0.000
Si1        Si     0.921     0.429     0.810     0.000
Si2        Si     0.826     0.466     0.650     0.000
Si3        Si     0.779     0.446     0.434     0.000
Si4        Si     0.625     0.449     0.452     0.000
Si5        Si     0.572     0.464     0.677     0.000
Si6        Si     0.703     0.431     0.780     0.000
Si7        Si     0.919     0.673     0.820     0.000
Si8        Si     0.815     0.624     0.664     0.000
Si9        Si     0.773     0.672     0.460     0.000
Al4        Al     0.619     0.672     0.482     0.000
Al5        Al     0.566     0.621     0.691     0.000
Si12        Si     0.695     0.671     0.791     0.000
O1         O     0.499     0.570     0.298     0.000
O2         O     0.613     0.574     0.199     0.000
O3         O     0.601     0.637     0.375     0.000
O4         O     0.603     0.503     0.367     0.000
O5         O     0.671     0.538     0.028     0.000
O6         O     0.670     0.456     0.184     0.000
O7         O     0.743     0.566     0.189     0.000
O8         O     0.709     0.630     0.894     0.000
O9         O     0.797     0.545     0.973     0.000
O10         O     0.706     0.501     0.844     0.000
O11         O     0.892     0.626     0.912     0.000
O12         O     0.915     0.537     0.056     0.000
O13         O     0.870     0.578     0.233     0.000
O14         O     0.927     0.459     0.217     0.000
O15         O     0.780     0.631     0.354     0.000
O16         O     0.509     0.355     0.283     0.000
O17         O     0.632     0.331     0.226     0.000
O18         O     0.574     0.250     0.357     0.000
O19         O     0.678     0.361     0.044     0.000
O20         O     0.759     0.358     0.201     0.000
O21         O     0.706     0.250     0.942     0.000
O22         O     0.802     0.331     1.000     0.000
O23         O     0.905     0.250     0.980     0.000
O24         O     0.919     0.367     0.072     0.000
O25         O     0.882     0.337     0.259     0.000
O26         O     0.788     0.250     0.309     0.000
Si1        Si     0.579     0.571     0.310     0.000
Si2        Si     0.674     0.534     0.150     0.000
Si3        Si     0.721     0.554     0.934     0.000
Si4        Si     0.875     0.551     0.952     0.000
Si5        Si     0.928     0.536     0.177     0.000
Si6        Si     0.797     0.569     0.280     0.000
Si7        Si     0.581     0.327     0.320     0.000
Si8        Si     0.685     0.377     0.164     0.000
Si9        Si     0.727     0.328     0.960     0.000
Si10        Si     0.881     0.328     0.982     0.000
Al6        Al     0.934     0.379     0.191     0.000
Al7        Al     0.805     0.329     0.291     0.000
O1         O     0.499     0.930     0.298     0.000
O2         O     0.613     0.926     0.199     0.000
O3         O     0.601     0.863     0.375     0.000
O4         O     0.603     0.997     0.367     0.000
O5         O     0.671     0.962     0.028     0.000
O6         O     0.670     0.044     0.184     0.000
O7         O     0.743     0.934     0.189     0.000
O8         O     0.709     0.870     0.894     0.000
O9         O     0.797     0.955     0.973     0.000
O10         O     0.706     0.999     0.844     0.000
O11         O     0.892     0.874     0.912     0.000
O12         O     0.915     0.963     0.056     0.000
O13         O     0.870     0.922     0.233     0.000
O14         O     0.927     0.041     0.217     0.000
O15         O     0.780     0.869     0.354     0.000
O16         O     0.509     0.145     0.283     0.000
O17         O     0.632     0.169     0.226     0.000
O19         O     0.678     0.139     0.044     0.000
O20         O     0.759     0.142     0.201     0.000
O22         O     0.802     0.169     1.000     0.000
O24         O     0.919     0.133     0.072     0.000
O25         O     0.882     0.163     0.259     0.000
Si1        Si     0.579     0.929     0.310     0.000
Si2        Si     0.674     0.966     0.150     0.000
Si3        Si     0.721     0.946     0.934     0.000
Si4        Si     0.875     0.949     0.952     0.000
Al8        Al     0.928     0.964     0.177     0.000
Al9        Al     0.797     0.931     0.280     0.000
Si7        Si     0.581     0.173     0.320     0.000
Si8        Si     0.685     0.123     0.164     0.000
Si9        Si     0.727     0.172     0.960     0.000
Si10        Si     0.881     0.172     0.982     0.000
Al10        Al     0.934     0.121     0.191     0.000
Al11        Al     0.805     0.171     0.291     0.000
O1         O     0.001     0.070     0.798     0.000
O2         O     0.887     0.074     0.699     0.000
O3         O     0.899     0.137     0.875     0.000
O4         O     0.897     0.003     0.867     0.000
O5         O     0.829     0.038     0.528     0.000
O6         O     0.830     0.956     0.684     0.000
O7         O     0.757     0.066     0.689     0.000
O8         O     0.791     0.130     0.394     0.000
O9         O     0.703     0.045     0.472     0.000
O10         O     0.794     0.001     0.344     0.000
O11         O     0.608     0.127     0.412     0.000
O12         O     0.585     0.037     0.556     0.000
O13         O     0.630     0.078     0.733     0.000
O14         O     0.573     0.959     0.717     0.000
O15         O     0.720     0.131     0.854     0.000
O16         O     0.991     0.855     0.783     0.000
O17         O     0.868     0.831     0.726     0.000
O19         O     0.822     0.861     0.544     0.000
O20         O     0.741     0.858     0.701     0.000
O22         O     0.698     0.831     0.500     0.000
O24         O     0.581     0.867     0.573     0.000
O25         O     0.618     0.837     0.759     0.000
Si1        Si     0.921     0.071     0.810     0.000
Si2        Si     0.826     0.034     0.650     0.000
Si3        Si     0.779     0.054     0.434     0.000
Si4        Si     0.625     0.051     0.452     0.000
Si5        Si     0.572     0.036     0.677     0.000
Si6        Si     0.703     0.069     0.780     0.000
Si7        Si     0.919     0.827     0.820     0.000
Si8        Si     0.815     0.876     0.664     0.000
Al12        Al     0.773     0.828     0.460     0.000
Al13        Al     0.619     0.828     0.482     0.000
Si11        Si     0.566     0.879     0.691     0.000
Si12        Si     0.695     0.829     0.791     0.000
O1         O     0.999     0.570     0.202     0.000
O2         O     0.113     0.574     0.301     0.000
O3         O     0.101     0.637     0.125     0.000
O4         O     0.103     0.503     0.133     0.000
O5         O     0.171     0.538     0.472     0.000
O6         O     0.170     0.456     0.316     0.000
O7         O     0.243     0.566     0.311     0.000
O8         O     0.209     0.630     0.606     0.000
O9         O     0.297     0.545     0.527     0.000
O10         O     0.206     0.501     0.656     0.000
O11         O     0.393     0.626     0.588     0.000
O12         O     0.415     0.537     0.444     0.000
O13         O     0.370     0.578     0.267     0.000
O14         O     0.427     0.459     0.283     0.000
O15         O     0.280     0.631     0.146     0.000
O16         O     0.009     0.355     0.217     0.000
O17         O     0.132     0.331     0.274     0.000
O19         O     0.178     0.361     0.456     0.000
O20         O     0.259     0.358     0.299     0.000
O22         O     0.302     0.331     0.500     0.000
O24         O     0.419     0.367     0.427     0.000
O25         O     0.382     0.337     0.241     0.000
Si1        Si     0.079     0.571     0.190     0.000
Si2        Si     0.174     0.534     0.350     0.000
Si3        Si     0.221     0.554     0.566     0.000
Si4        Si     0.375     0.551     0.548     0.000
Si5        Si     0.428     0.536     0.323     0.000
Si6        Si     0.297     0.569     0.220     0.000
Al14        Al     0.081     0.327     0.180     0.000
Si8        Si     0.185     0.377     0.336     0.000
Si9        Si     0.227     0.328     0.540     0.000
Al15        Al     0.382     0.328     0.518     0.000
Si11        Si     0.434     0.379     0.309     0.000
Si12        Si     0.305     0.329     0.209     0.000
O1         O     0.501     0.430     0.702     0.000
O2         O     0.388     0.426     0.801     0.000
O3         O     0.400     0.363     0.625     0.000
O4         O     0.397     0.497     0.633     0.000
O5         O     0.329     0.462     0.972     0.000
O6         O     0.330     0.544     0.816     0.000
O7         O     0.257     0.434     0.811     0.000
O8         O     0.291     0.370     0.106     0.000
O9         O     0.203     0.455     0.028     0.000
O10         O     0.294     0.499     0.156     0.000
O11         O     0.107     0.373     0.088     0.000
O12         O     0.085     0.463     0.944     0.000
O13         O     0.130     0.422     0.767     0.000
O14         O     0.073     0.541     0.783     0.000
O15         O     0.220     0.369     0.646     0.000
O16         O     0.491     0.645     0.717     0.000
O17         O     0.368     0.669     0.774     0.000
O19         O     0.322     0.639     0.956     0.000
O20         O     0.241     0.642     0.799     0.000
O22         O     0.198     0.669     0.000     0.000
O24         O     0.081     0.633     0.927     0.000
O25         O     0.118     0.663     0.741     0.000
Al16        Al     0.421     0.429     0.690     0.000
Al17        Al     0.326     0.466     0.850     0.000
Si3        Si     0.279     0.446     0.066     0.000
Al18        Al     0.125     0.449     0.048     0.000
Si5        Si     0.072     0.464     0.823     0.000
Si6        Si     0.203     0.431     0.720     0.000
Si7        Si     0.419     0.673     0.680     0.000
Si8        Si     0.315     0.624     0.836     0.000
Si9        Si     0.273     0.672     0.040     0.000
Si10        Si     0.118     0.672     0.018     0.000
Si11        Si     0.066     0.621     0.809     0.000
Si12        Si     0.195     0.671     0.709     0.000
