data_MOR

_audit_creation_method RASPA-1.0
_audit_creation_date 2022-4-23
_audit_author_name 'Pablo_Romero'

_cell_length_a    18.256
_cell_length_b    20.534
_cell_length_c    7.5420
_cell_angle_alpha 90
_cell_angle_beta  90
_cell_angle_gamma 90
_cell_volume      2827.26

_symmetry_cell_setting          orthorhombic
_symmetry_space_group_name_Hall 'P 1'
_symmetry_space_group_name_H-M  'P 1'
_symmetry_Int_Tables_number     1
_symmetry_equiv_pos_as_xyz 'x,y,z'

loop_
_atom_site_label
_atom_site_type_symbol
_atom_site_fract_x
_atom_site_fract_y
_atom_site_fract_z
_atom_site_charge
O         O     0.281     0.000     0.000    -0.393
O         O     0.327     0.080     0.250    -0.393
O         O     0.376     0.092     0.924    -0.393
O         O     0.239     0.122     0.999    -0.393
O         O     0.325     0.309     0.250    -0.393
O         O     0.250     0.250     0.000    -0.393
O         O     0.376     0.306     0.924    -0.393
O         O     0.000     0.401     0.250    -0.393
O         O     0.091     0.301     0.250    -0.393
O         O     0.000     0.201     0.250    -0.393
Si        Si     0.306     0.074     0.043     0.000
Al1        Al     0.303     0.311     0.044     0.000
Si        Si     0.085     0.379     0.250     0.000
Al2        Al     0.085     0.223     0.250     0.000
O         O     0.719     0.000     0.500    -0.393
O         O     0.673     0.920     0.750    -0.393
O         O     0.624     0.908     0.424    -0.393
O         O     0.761     0.878     0.499    -0.393
O         O     0.675     0.691     0.750    -0.393
O         O     0.750     0.750     0.500    -0.393
O         O     0.624     0.694     0.424    -0.393
O         O     0.000     0.600     0.750    -0.393
O         O     0.909     0.699     0.750    -0.393
O         O     0.000     0.799     0.750    -0.393
Si        Si     0.694     0.926     0.543     0.000
Si        Si     0.697     0.689     0.544     0.000
Si        Si     0.915     0.621     0.750     0.000
Si        Si     0.915     0.777     0.750     0.000
O         O     0.327     0.920     0.750    -0.393
O         O     0.376     0.908     0.076    -0.393
O         O     0.239     0.878     0.001    -0.393
O         O     0.325     0.691     0.750    -0.393
O         O     0.250     0.750     0.000    -0.393
O         O     0.376     0.694     0.076    -0.393
O         O     0.091     0.699     0.750    -0.393
Al3        Al     0.306     0.926     0.957     0.000
Si        Si     0.303     0.689     0.956     0.000
Si        Si     0.085     0.621     0.750     0.000
Si        Si     0.085     0.777     0.750     0.000
O         O     0.673     0.080     0.250    -0.393
O         O     0.624     0.092     0.576    -0.393
O         O     0.761     0.122     0.501    -0.393
O         O     0.675     0.309     0.250    -0.393
O         O     0.750     0.250     0.500    -0.393
O         O     0.624     0.306     0.576    -0.393
O         O     0.909     0.301     0.250    -0.393
Si        Si     0.694     0.074     0.457     0.000
Si        Si     0.697     0.311     0.456     0.000
Al4        Al     0.915     0.379     0.250     0.000
Si        Si     0.915     0.223     0.250     0.000
O         O     0.719     0.000     0.000    -0.393
O         O     0.624     0.908     0.076    -0.393
O         O     0.761     0.878     0.001    -0.393
O         O     0.750     0.750     0.000    -0.393
O         O     0.624     0.694     0.076    -0.393
Si        Si     0.694     0.926     0.957     0.000
Si        Si     0.697     0.689     0.956     0.000
O         O     0.281     0.000     0.500    -0.393
O         O     0.376     0.092     0.576    -0.393
O         O     0.239     0.122     0.501    -0.393
O         O     0.250     0.250     0.500    -0.393
O         O     0.376     0.306     0.576    -0.393
Si        Si     0.306     0.074     0.457     0.000
Si        Si     0.303     0.311     0.456     0.000
O         O     0.624     0.092     0.924    -0.393
O         O     0.761     0.122     0.999    -0.393
O         O     0.750     0.250     0.000    -0.393
O         O     0.624     0.306     0.924    -0.393
Si        Si     0.694     0.074     0.043     0.000
Si        Si     0.697     0.311     0.044     0.000
O         O     0.376     0.908     0.424    -0.393
O         O     0.239     0.878     0.499    -0.393
O         O     0.250     0.750     0.500    -0.393
O         O     0.376     0.694     0.424    -0.393
Si        Si     0.306     0.926     0.543     0.000
Si        Si     0.303     0.689     0.544     0.000
O         O     0.781     0.500     0.000    -0.393
O         O     0.827     0.580     0.250    -0.393
O         O     0.876     0.592     0.924    -0.393
O         O     0.739     0.622     0.999    -0.393
O         O     0.825     0.809     0.250    -0.393
O         O     0.876     0.806     0.924    -0.393
O         O     0.500     0.900     0.250    -0.393
O         O     0.591     0.801     0.250    -0.393
O         O     0.500     0.701     0.250    -0.393
Si        Si     0.806     0.574     0.043     0.000
Al5        Al     0.803     0.811     0.044     0.000
Si        Si     0.585     0.879     0.250     0.000
Si        Si     0.585     0.723     0.250     0.000
O         O     0.219     0.500     0.500    -0.393
O         O     0.173     0.420     0.750    -0.393
O         O     0.124     0.408     0.424    -0.393
O         O     0.261     0.378     0.499    -0.393
O         O     0.175     0.191     0.750    -0.393
O         O     0.124     0.194     0.424    -0.393
O         O     0.500     0.100     0.750    -0.393
O         O     0.409     0.199     0.750    -0.393
O         O     0.500     0.299     0.750    -0.393
Al6        Al     0.194     0.426     0.543     0.000
Si        Si     0.197     0.189     0.544     0.000
Si        Si     0.415     0.121     0.750     0.000
Si        Si     0.415     0.277     0.750     0.000
O         O     0.827     0.420     0.750    -0.393
O         O     0.876     0.408     0.076    -0.393
O         O     0.739     0.378     0.001    -0.393
O         O     0.825     0.191     0.750    -0.393
O         O     0.876     0.194     0.076    -0.393
O         O     0.591     0.199     0.750    -0.393
Si        Si     0.806     0.426     0.957     0.000
Al7        Al     0.803     0.189     0.956     0.000
Al8        Al     0.585     0.121     0.750     0.000
Si        Si     0.585     0.277     0.750     0.000
O         O     0.173     0.580     0.250    -0.393
O         O     0.124     0.592     0.576    -0.393
O         O     0.261     0.622     0.501    -0.393
O         O     0.175     0.809     0.250    -0.393
O         O     0.124     0.806     0.576    -0.393
O         O     0.409     0.801     0.250    -0.393
Si        Si     0.194     0.574     0.457     0.000
Si        Si     0.197     0.811     0.456     0.000
Al9        Al     0.415     0.879     0.250     0.000
Al10        Al     0.415     0.723     0.250     0.000
O         O     0.219     0.500     0.000    -0.393
O         O     0.124     0.408     0.076    -0.393
O         O     0.261     0.378     0.001    -0.393
O         O     0.124     0.194     0.076    -0.393
Si        Si     0.194     0.426     0.957     0.000
Si        Si     0.197     0.189     0.956     0.000
O         O     0.781     0.500     0.500    -0.393
O         O     0.876     0.592     0.576    -0.393
O         O     0.739     0.622     0.501    -0.393
O         O     0.876     0.806     0.576    -0.393
Si        Si     0.806     0.574     0.457     0.000
Al11        Al     0.803     0.811     0.456     0.000
O         O     0.124     0.592     0.924    -0.393
O         O     0.261     0.622     0.999    -0.393
O         O     0.124     0.806     0.924    -0.393
Si        Si     0.194     0.574     0.043     0.000
Si        Si     0.197     0.811     0.044     0.000
O         O     0.876     0.408     0.424    -0.393
O         O     0.739     0.378     0.499    -0.393
O         O     0.876     0.194     0.424    -0.393
Si        Si     0.806     0.426     0.543     0.000
Si        Si     0.803     0.189     0.544     0.000
